#
# This uncovers a bug in the unscreening of the ps !!!
#
   pg   Fe, GGA, rcore=0.70 sp Pol GS NO CC
        tm2      3.0
 n=Fe c=pbs
       0.0       0.0       0.0       0.0       0.0       0.0
    5    4
    4    0      1.00      1.00
    4    1      0.00      0.00
    3    2      5.00      1.00
    4    3      0.00      0.00
      2.00      2.00      2.00      2.00      0.00      0.00

123456789012345678901234567890123456789012345678901234567890
