   ae   Fe 3d5ud1d 4s1u1d  (GS)
 n=Fe c=pbs
       0.0       0.0       0.0       0.0       0.0       0.0
    5    3
    4    0      1.00      1.00
    4    1      0.00      0.00
    3    2      5.00      1.00

   ae   Fe 3d3u3d 4s1u1d  
 n=Fe c=pbs
       0.0       0.0       0.0       0.0       0.0       0.0
    5    3
    4    0      1.00      1.00
    4    1      0.00      0.00
    3    2      3.00      3.00

   ae   Fe 3d5u1d 4s1u 4p1u
 n=Fe c=pbs
       0.0       0.0       0.0       0.0       0.0       0.0
    5    3
    4    0      1.00      0.00
    4    1      1.00      0.00
    3    2      5.00      1.00

#
#   PS test
#

   pt   Fe 3d5ud1d 4s1u1d  (GS)
 n=Fe c=pbs
       0.0       0.0       0.0       0.0       0.0       0.0
    5    3
    4    0      1.00      1.00
    4    1      0.00      0.00
    3    2      5.00      1.00

   pt   Fe 3d3u3d 4s1u1d  
 n=Fe c=pbs
       0.0       0.0       0.0       0.0       0.0       0.0
    5    3
    4    0      1.00      1.00
    4    1      0.00      0.00
    3    2      3.00      3.00

   pt   Fe 3d5u1d 4s1u 4p1u
 n=Fe c=pbs
       0.0       0.0       0.0       0.0       0.0       0.0
    5    3
    4    0      1.00      0.00
    4    1      1.00      0.00
    3    2      5.00      1.00

