   ae   Fe GS 3s2 3p6 3d6 
 n=Fe c=pbr
       0.0       0.0       0.0       0.0       0.0       0.0
    3    3
    3    0      2.00      0.00
    3    1      6.00      0.00
    3    2      6.00      0.00

   ae   Fe 3d6.5 3s1.5 
 n=Fe c=pbr
       0.0       0.0       0.0       0.0       0.0       0.0
    3    3
    3    0      1.50      0.00
    3    1      6.00      0.00
    3    2      6.50      0.00

   ae   Fe 3p5.5 3d6.5 3s2.0 
 n=Fe c=pbr
       0.0       0.0       0.0       0.0       0.0       0.0
    3    3
    3    0      2.00      0.00
    3    1      5.50      0.00
    3    2      6.50      0.00

   ae   Fe 3p6 3d7 3s1.0 
 n=Fe c=pbr
       0.0       0.0       0.0       0.0       0.0       0.0
    3    3
    3    0      1.00      0.00
    3    1      6.00      0.00
    3    2      7.00      0.00

#
#   PS test
#

   pt   Fe GS 3d6 3s2
 n=Fe c=pbr
       0.0       0.0       0.0       0.0       0.0       0.0
    3    3
    3    0      2.00      0.00
    3    1      6.00      0.00
    3    2      6.00      0.00

   pt   Fe 3d6.5 3s1.5 
 n=Fe c=pbr
       0.0       0.0       0.0       0.0       0.0       0.0
    3    3
    3    0      1.50      0.00
    3    1      6.00      0.00
    3    2      6.50      0.00

   pt   Fe 3p5.5 3d6.5 3s2.0 
 n=Fe c=pbr
       0.0       0.0       0.0       0.0       0.0       0.0
    3    3
    3    0      2.00      0.00
    3    1      5.50      0.00
    3    2      6.50      0.00

   pt   Fe 3p6 3d7 3s1.0 
 n=Fe c=pbr
       0.0       0.0       0.0       0.0       0.0       0.0
    3    3
    3    0      1.00      0.00
    3    1      6.00      0.00
    3    2      7.00      0.00

123456789012345678901234567890123456789012345678901234567890
