   pe        No semicore
        tm2
   Ti   pb 
     0.000     0.000     0.000     0.000     0.000     0.000
    5    4
    4    0     2.000     0.000    #4s
    4    1     0.000     0.000    #4p
    3    2     2.000     0.000    #3d
    4    3     0.000     0.000    #4f
  -1.20     -1.20000  -1.30000   2.48000   1.00000  -1.00000

#23456789012345678901234567890123456789012345678901234567890      Ruler
