   pe        Semicore (ionic) with relative rc's (except f)
        tm2
   Ti   pb 
     0.000     0.000     0.000     0.000     0.000     0.000
    3    4
    3    0     2.000     0.000    #3s2
    3    1     6.000     0.000    #3p6
    3    2     2.000     0.000    #3d2
    4    3     0.000     0.000    #4f
   -1.2000   -1.2000   -1.3000   2.48000   0.20000  -1.00000

#23456789012345678901234567890123456789012345678901234567890      Ruler
